/*--------------------------------*- C++ -*----------------------------------*\
  =========                 |
  \\      /  F ield         | OpenFOAM: The Open Source CFD Toolbox
   \\    /   O peration     | Website:  https://openfoam.org
    \\  /    A nd           | Version:  7
     \\/     M anipulation  |
\*---------------------------------------------------------------------------*/
FoamFile
{
	version		2.0;
	format		ascii;
	class		dictionary;
	location	"system";
	object		decomposeParDict;
}
// * * * * * * * * * * * * * * * * * * * * * * * * * * * * * * * * * * * * * //

// Revision 2021.1
// Changelog: N/A
// Notes: N/A

// numberOfSubdomains 6;
//
// method          hierarchical;
//
// hierarchicalCoeffs
// {
// 	n               (3 2 1);	// No. Subdomains xyz
// 	delta           1e-3; 		// Cell Skew Factor
// 	order           xyz;		// Decomposition Order
// }

numberOfSubdomains 560;

method          hierarchical;

hierarchicalCoeffs
{
	n               (28 5 4);	// No. Subdomains xyz
	delta           1e-3; 		// Cell Skew Factor
	order           xyz;		// Decomposition Order
}

// ************************************************************************* //
