/*--------------------------------*- C++ -*----------------------------------*\
  =========                 |
  \\      /  F ield         | OpenFOAM: The Open Source CFD Toolbox
   \\    /   O peration     | Website:  https://openfoam.org
    \\  /    A nd           | Version:  7
     \\/     M anipulation  |
\*---------------------------------------------------------------------------*/
FoamFile
{
    version     2.0;
    format      ascii;
    class       dictionary;
    object      blockMeshDict;
}
// * * * * * * * * * * * * * * * * * * * * * * * * * * * * * * * * * * * * * //

// Revision SC_2021.1
// Changelog: N/A
// Notes: N/A

convertToMeters 1;

vertices
(
    (-13.6 -0.96 0)         // 0
    (-4.832 -0.96 0)        // 1
    (-4.704 -0.96 0)        // 2
    (4.704 -0.98613 0)      // 3
    (4.832 -0.98613 0)      // 4
    (14.4 -0.98613 0)       // 5

    (-13.6 -0.96 1.32)      // 6
    (-4.832 -0.96 1.32)     // 7
    (-4.704 -0.96 1.32)     // 8
    (4.704 -0.98613 1.32)   // 9
    (4.832 -0.98613 1.32)   // 10
    (14.4 -0.98613 1.32)    // 11

    (-13.6 0.96 0)          // 12/0
    (-4.832 0.96 0)         // 13/1
    (-4.704 0.96 0)         // 14/2
    (4.704 0.98613 0)       // 15/3
    (4.832 0.98613 0)       // 16/4
    (14.4 0.98613 0)        // 17/5

    (-13.6 0.96 1.32)       // 18/6
    (-4.832 0.96 1.32)      // 19/7
    (-4.704 0.96 1.32)      // 20/8
    (4.704 0.98613 1.32)    // 21/9
    (4.832 0.98613 1.32)    // 22/10
    (14.4 0.98613 1.32)     // 23/11
);

blocks
(
    hex (0 1 13 12 6 7 19 18) (274 60 41) simpleGrading (1 1 1)     // inletSection
    hex (1 2 14 13 7 8 20 19) (4 60 41) simpleGrading (1 1 1)       // inletBuffer
    hex (2 3 15 14 8 9 21 20) (294 60 41) simpleGrading (1 1 1)     // workingSection
    hex (3 4 16 15 9 10 22 21) (4 60 41) simpleGrading (1 1 1)      // outletBuffer
    hex (4 5 17 16 10 11 23 22) (299 60 41) simpleGrading (1 1 1)   // outletSection
);

edges
(
);

boundary
(
    inlet
    {
        type    patch;

        faces
        (
            (0 12 18 6)
        );
    }

    outlet
    {
        type    patch;

        faces
        (
            (5 17 23 11)
        );
    }

    inletSectionBack
    {
        type    wall;

        faces
        (
            (12 13 19 18)
        );
    }

    inletSectionFloor
    {
        type    wall;

        faces
        (
            (0 1 13 12)
        );
    }

    inletSectionFront
    {
        type    wall;

        faces
        (
            (0 1 7 6)
        );
    }

    inletSectionRoof
    {
        type    wall;

        faces
        (
            (6 7 19 18)
        );
    }

    inletBufferBack
    {
        type    wall;

        faces
        (
            (13 14 20 19)
        );
    }

    inletBufferFloor
    {
        type    wall;

        faces
        (
            (1 2 14 13)
        );
    }

    inletBufferFront
    {
        type    wall;

        faces
        (
            (1 2 8 7)
        );
    }

    inletBufferRoof
    {
        type    wall;

        faces
        (
            (7 8 20 19)
        );
    }

    workingSectionBack
    {
        type    wall;

        faces
        (
            (14 15 21 20)
        );
    }

    workingSectionFloor
    {
        type    wall;

        faces
        (
            (2 3 15 14)
        );
    }

    workingSectionFront
    {
        type    wall;

        faces
        (
            (2 3 9 8)
        );
    }

    workingSectionRoof
    {
        type    wall;

        faces
        (
            (8 9 21 20)
        );
    }

    outletBufferBack
    {
        type    wall;

        faces
        (
            (15 16 22 21)
        );
    }

    outletBufferFloor
    {
        type    wall;

        faces
        (
            (3 4 16 15)
        );
    }

    outletBufferFront
    {
        type    wall;

        faces
        (
            (3 4 10 9)
        );
    }

    outletBufferRoof
    {
        type    wall;

        faces
        (
            (9 10 22 21)
        );
    }

    outletSectionBack
    {
        type    wall;

        faces
        (
            (16 17 23 22)
        );
    }

    outletSectionFloor
    {
        type    wall;

        faces
        (
            (4 5 17 16)
        );
    }

    outletSectionFront
    {
        type    wall;

        faces
        (
            (4 5 11 10)
        );
    }

    outletSectionRoof
    {
        type    wall;

        faces
        (
            (10 11 23 22)
        );
    }
);

mergePatchPairs
(
);

// ************************************************************************* //
