/*--------------------------------*- C++ -*----------------------------------*\
  =========                 |
  \\      /  F ield         | OpenFOAM: The Open Source CFD Toolbox
   \\    /   O peration     | Website:  https://openfoam.org
    \\  /    A nd           | Version:  7
     \\/     M anipulation  |
\*---------------------------------------------------------------------------*/
FoamFile
{
    version     2.0;
    format      ascii;
    class       dictionary;
    location    "system";
    object      blockMeshDict;
}
// * * * * * * * * * * * * * * * * * * * * * * * * * * * * * * * * * * * * * //

// Revision windsorFullScale_2023.1
// Changelog: N/A
// Notes: N/A


convertToMeters 1;

vertices
(
    (-27.648 -13.312 0)         // 0
    (60.416 -13.312 0)          // 1
    (-27.648 -13.312 14.336)    // 2
    (60.416 -13.312 14.336)     // 3
    (-27.648 13.312 0)          // 4/0
    (60.416 13.312 0)           // 5/1
    (-27.648 13.312 14.336)     // 6/2
    (60.416 13.312 14.336)      // 7/3

);

blocks
(
    hex (0 1 5 4 2 3 7 6) (172 52 28) simpleGrading (1 1 1)
);

edges
(
);

boundary
(
    inlet
    {
        type    patch;

        faces
        (
            (0 4 6 2)
        );
    }

    domainBack
    {
        type    symmetryPlane;

        faces
        (
            (4 5 7 6)
        );
    }

    domainFloor
    {
        type    wall;

        faces
        (
            (0 1 5 4)
        );
    }

    domainFront
    {
        type     symmetryPlane;

        faces
        (
            (0 1 3 2)
        );
    }

    domainRoof
    {
        type     symmetryPlane;

        faces
        (
            (2 3 7 6)
        );
    }

    outlet
    {
        type    patch;

        faces
        (
            (1 5 7 3)
        );
    }
);

mergePatchPairs
(
);

// ************************************************************************* //
