/*--------------------------------*- C++ -*----------------------------------*\
  =========                 |
  \\      /  F ield         | OpenFOAM: The Open Source CFD Toolbox
   \\    /   O peration     | Website:  https://openfoam.org
    \\  /    A nd           | Version:  7
     \\/     M anipulation  |
\*---------------------------------------------------------------------------*/
FoamFile
{
    version     2.0;
    format      ascii;
    class       volScalarField;
    location    "0";
    object      p;
}
// * * * * * * * * * * * * * * * * * * * * * * * * * * * * * * * * * * * * * //

// Revision emptyTunnel_2023.1
// Changelog: N/A
// Notes: N/A


dimensions      [0 2 -2 0 0 0 0]; // kg m s K mol A cd

internalField   uniform 0;

boundaryField
{
    inlet
    {
        type        zeroGradient;
    }

    outlet
    {
        type        fixedValue;
        value       uniform 0;
    }

    "(inletSection.*|inletBuffer.*|outletBuffer.*|outletSection.*)"
    {
        type        zeroGradient;
    }

    "(workingSection.*)"
    {
        type        zeroGradient;
    }
}

// ************************************************************************* //
