/*--------------------------------*- C++ -*----------------------------------*\
  =========                 |
  \\      /  F ield         | OpenFOAM: The Open Source CFD Toolbox
   \\    /   O peration     | Website:  https://openfoam.org
    \\  /    A nd           | Version:  7
     \\/     M anipulation  |
\*---------------------------------------------------------------------------*/
FoamFile
{
    version     2.0;
    format      ascii;
    class       volScalarField;
    location    "0";
    object      nuTilda;
}
// * * * * * * * * * * * * * * * * * * * * * * * * * * * * * * * * * * * * * //

// Revision SC_2021.1
// Changelog: N/A
// Notes: N/A

dimensions		[0 2 -1 0 0 0 0];	// kg m s K mol A cd

internalField	uniform 0.007160348416104;

boundaryField
{
	inlet
	{
		type	fixedValue;
		value	uniform 0.007160348416104;
	}

	outlet
	{
		type	zeroGradient;
	}

	"(inletSection.*|inletBuffer.*|outletBuffer.*|outletSection.*)"
    {
        type	slip;
	}

	"(workingSection.*|windsor.*)"
	{
		type	fixedValue;
		value	uniform 0;
	}
}

// ************************************************************************* //
