/*--------------------------------*- C++ -*----------------------------------*\
  =========                 |
  \\      /  F ield         | OpenFOAM: The Open Source CFD Toolbox
   \\    /   O peration     | Website:  https://openfoam.org
    \\  /    A nd           | Version:  7
     \\/     M anipulation  |
\*---------------------------------------------------------------------------*/
FoamFile
{
	version		2.0;
	format		ascii;
	class		uniformDimensionedVectorField;
	location	"constant";
	object		g;
}
// * * * * * * * * * * * * * * * * * * * * * * * * * * * * * * * * * * * * * //

// Revision 2021.1
// Changes from previous revision: N/A

dimensions		[0 1 -2 0 0 0 0];	// kg m s K mol A cd

value			(0 0 -9.81);

// ************************************************************************* //
