/*--------------------------------*- C++ -*----------------------------------*\
  =========                 |
  \\      /  F ield         | OpenFOAM: The Open Source CFD Toolbox
   \\    /   O peration     | Website:  https://openfoam.org
    \\  /    A nd           | Version:  7
     \\/     M anipulation  |
\*---------------------------------------------------------------------------*/
FoamFile
{
	version		2.0;
	format		ascii;
	class		dictionary;
	location	"constant";
	object		kinematicCloudProperties;
}
// * * * * * * * * * * * * * * * * * * * * * * * * * * * * * * * * * * * * * //

// Revision 2021.1
// Changes from previous revision: N/A

solution
{
	active						true;
	transient					true;
	coupled						false;
	cellValueSourceCorrection	off;

	// extractionPlane				0; // X-position of third-party extraction plane

	surfaceTension				72.8e-3; // Droplet surface tension (N/m)

	// lagrangianWrite				0; // Write lagrangian data every <lagrangianWrite> time steps

	sourceTerms
	{
		schemes
		{
			U		semiImplicit 1;
		}
	}

	integrationSchemes
	{
		U		Euler;
	}

	interpolationSchemes
	{
		rho			cell;
		U			cellPoint;
		mu			cell;
		curlUcDt	cell;
	}
}

constantProperties
{
	rho0			1000;
}

subModels
{
	particleForces
	{
		sphereDrag;
		gravity;

		SaffmanMeiLiftForce
		{
			U.air;
		}
	}

	injectionModels
	{
		rearLeftInjector1
		{
			type 				coneInjection;

			// Position
			injectionMethod		point;
			position			(0.48325 -0.167 0.001);
			direction			(1 0 1);
			thetaInner			constant 41.9872;
			thetaOuter			constant 45;

			// Duration
			SOI					0.5;
			duration			0.5;

			// Quantity
			parcelBasisType		mass;
			massTotal			5.781052046210000e-04;
			parcelsPerSecond	3500000;
			flowRateProfile		constant 1;

			// Velocity
			Umag				constant 46.4145;

			// Size
			sizeDistribution
			{
				type	general;

				generalDistribution
				{
					distribution
					(
						(1e-06      0.75979)
						(2e-06      1.7772)
						(3e-06      3.0557)
						(4e-06      2.8244)
						(5e-06      2.8443)
						(6e-06      2.9681)
						(7e-06      3.2902)
						(8e-06      3.0193)
						(9e-06      2.6246)
						(10e-06      2.5205)
						(11e-06      2.8674)
						(12e-06      3.1977)
						(13e-06      2.8938)
						(14e-06      4.8693)
						(15e-06      6.5045)
						(16e-06      7.9084)
						(17e-06      7.4162)
						(18e-06      6.3542)
						(19e-06      5.0047)
						(20e-06      4.6199)
						(21e-06      3.7114)
						(22e-06      2.8509)
						(23e-06      2.3752)
						(24e-06      1.9953)
						(25e-06      1.4717)
						(26e-06      1.5031)
						(27e-06      1.4618)
						(28e-06      1.2702)
						(29e-06      1.0885)
						(30e-06      0.87211)
						(31e-06      0.73832)
						(32e-06      0.7251)
						(33e-06      0.5748)
						(34e-06      0.45587)
						(35e-06      0.34851)
						(36e-06      0.25106)
						(37e-06      0.19325)
						(38e-06      0.12223)
						(39e-06      0.13874)
						(40e-06      0.072676)
						(41e-06      0.064417)
						(42e-06      0.059462)
						(43e-06      0.036338)
						(44e-06      0.028079)
						(45e-06      0.024776)
						(46e-06      0.019821)
						(47e-06      0.026427)
						(48e-06      0.024776)
						(49e-06      0.013214)
						(50e-06      0.019821)
						(51e-06      0.0099103)
						(52e-06      0.011562)
						(53e-06      0.019821)
						(54e-06      0.013214)
						(55e-06      0.014865)
						(56e-06      0.013214)
						(57e-06      0.0066069)
						(58e-06      0.014865)
						(59e-06      0.0016517)
						(60e-06      0.0033034)
						(61e-06      0.0049552)
						(62e-06      0.0016517)
						(63e-06      0.0033034)
						(64e-06      0.0016517)
						(65e-06      0.0033034)
						(68e-06      0.0016517)
						(69e-06      0.0033034)
						(71e-06      0.0016517)
						(75e-06      0.0016517)
						(78e-06      0.0016517)
						(90e-06      0.0016517)
						(94e-06      0.0016517)
						(97e-06      0.0016517)
						(101e-06      0.0016517)
						(106e-06      0.0016517)
					);
				}
			}
		}

		rearLeftInjector2
		{
			type 				coneInjection;

			// Position
			injectionMethod		point;
			position			(0.48325 -0.167 0.001);
			direction			(1 0 1);
			thetaInner			constant 38.6598;
			thetaOuter			constant 41.9872;

			// Duration
			SOI					0.5;
			duration			0.5;

			// Quantity
			parcelBasisType		mass;
			massTotal			5.161899978357200e-04;
			parcelsPerSecond	3000000;
			flowRateProfile		constant 1;

			// Velocity
			Umag				constant 43.1899;

			// Size
			sizeDistribution
			{
				type	general;

				generalDistribution
				{
					distribution
					(
						(1e-06      1.4657)
						(2e-06      3.585)
						(3e-06      5.2044)
						(4e-06      4.6596)
						(5e-06      4.3104)
						(6e-06      4.3134)
						(7e-06      4.465)
						(8e-06      3.9961)
						(9e-06      3.3745)
						(10e-06      3.5122)
						(11e-06      4.028)
						(12e-06      5.1106)
						(13e-06      4.4162)
						(14e-06      6.3399)
						(15e-06      6.3468)
						(16e-06      5.7891)
						(17e-06      4.8003)
						(18e-06      3.9153)
						(19e-06      3.0981)
						(20e-06      2.7798)
						(21e-06      2.4066)
						(22e-06      1.8728)
						(23e-06      1.6563)
						(24e-06      1.355)
						(25e-06      0.895)
						(26e-06      0.99279)
						(27e-06      0.95088)
						(28e-06      0.77727)
						(29e-06      0.7174)
						(30e-06      0.53481)
						(31e-06      0.46397)
						(32e-06      0.39113)
						(33e-06      0.32428)
						(34e-06      0.23547)
						(35e-06      0.17361)
						(36e-06      0.1357)
						(37e-06      0.10277)
						(38e-06      0.061862)
						(39e-06      0.06286)
						(40e-06      0.051884)
						(41e-06      0.042904)
						(42e-06      0.0449)
						(43e-06      0.027938)
						(44e-06      0.01796)
						(45e-06      0.020953)
						(46e-06      0.020953)
						(47e-06      0.015964)
						(48e-06      0.00898)
						(49e-06      0.015964)
						(50e-06      0.00898)
						(51e-06      0.010976)
						(52e-06      0.00898)
						(53e-06      0.0059866)
						(54e-06      0.011973)
						(55e-06      0.0019955)
						(56e-06      0.0039911)
						(57e-06      0.0049889)
						(58e-06      0.010976)
						(59e-06      0.0079822)
						(60e-06      0.0039911)
						(61e-06      0.0029933)
						(62e-06      0.0019955)
						(63e-06      0.00099777)
						(64e-06      0.0019955)
						(65e-06      0.00099777)
						(66e-06      0.00099777)
						(67e-06      0.00099777)
						(68e-06      0.0019955)
						(69e-06      0.0019955)
						(71e-06      0.00099777)
						(72e-06      0.00099777)
						(73e-06      0.00099777)
						(74e-06      0.00099777)
						(75e-06      0.0019955)
						(83e-06      0.00099777)
						(96e-06      0.00099777)
						(97e-06      0.00099777)
						(102e-06      0.00099777)
						(104e-06      0.00099777)
						(109e-06      0.00099777)
						(114e-06      0.00099777)
						(116e-06      0.00099777)
						(118e-06      0.00099777)
					);
				}
			}
		}

		rearLeftInjector3
		{
			type 				coneInjection;

			// Position
			injectionMethod		point;
			position			(0.48325 -0.167 0.001);
			direction			(1 0 1);
			thetaInner			constant 34.992;
			thetaOuter			constant 38.6598;

			// Duration
			SOI					0.5;
			duration			0.5;

			// Quantity
			parcelBasisType		mass;
			massTotal			3.409557092914450e-04;
			parcelsPerSecond	2000000;
			flowRateProfile		constant 1;

			// Velocity
			Umag				constant 37.6914;

			// Size
			sizeDistribution
			{
				type	general;

				generalDistribution
				{
					distribution
					(
						(1e-06      3.0341)
						(2e-06      6.7075)
						(3e-06      8.6441)
						(4e-06      6.7383)
						(5e-06      5.7236)
						(6e-06      5.1845)
						(7e-06      5.1077)
						(8e-06      4.5445)
						(9e-06      4.5258)
						(10e-06      5.0649)
						(11e-06      5.9934)
						(12e-06      6.5666)
						(13e-06      4.4022)
						(14e-06      4.9293)
						(15e-06      4.0742)
						(16e-06      3.2967)
						(17e-06      2.5725)
						(18e-06      2.1183)
						(19e-06      1.7308)
						(20e-06      1.5551)
						(21e-06      1.3601)
						(22e-06      1.0782)
						(23e-06      0.93188)
						(24e-06      0.75219)
						(25e-06      0.49366)
						(26e-06      0.49968)
						(27e-06      0.48966)
						(28e-06      0.38144)
						(29e-06      0.30929)
						(30e-06      0.26186)
						(31e-06      0.20708)
						(32e-06      0.16233)
						(33e-06      0.11824)
						(34e-06      0.072814)
						(35e-06      0.076822)
						(36e-06      0.048097)
						(37e-06      0.041417)
						(38e-06      0.024049)
						(39e-06      0.028057)
						(40e-06      0.017368)
						(41e-06      0.016032)
						(42e-06      0.015364)
						(43e-06      0.01002)
						(44e-06      0.0086842)
						(45e-06      0.012024)
						(46e-06      0.0073482)
						(47e-06      0.0040081)
						(48e-06      0.0073482)
						(49e-06      0.01002)
						(50e-06      0.0033401)
						(51e-06      0.0066802)
						(52e-06      0.0026721)
						(53e-06      0.002004)
						(54e-06      0.0033401)
						(55e-06      0.002004)
						(56e-06      0.0053441)
						(57e-06      0.001336)
						(58e-06      0.002004)
						(59e-06      0.00066802)
						(60e-06      0.001336)
						(61e-06      0.00066802)
						(63e-06      0.00066802)
						(64e-06      0.002004)
						(66e-06      0.00066802)
						(67e-06      0.00066802)
						(68e-06      0.00066802)
						(70e-06      0.00066802)
						(76e-06      0.00066802)
						(77e-06      0.00066802)
						(80e-06      0.00066802)
						(87e-06      0.00066802)
						(94e-06      0.00066802)
						(99e-06      0.00066802)
					);
				}
			}
		}

		rearLeftInjector4
		{
			type 				coneInjection;

			// Position
			injectionMethod		point;
			position			(0.48325 -0.167 0.001);
			direction			(1 0 1);
			thetaInner			constant 30.9638;
			thetaOuter			constant 34.992;

			// Duration
			SOI					0.5;
			duration			0.5;

			// Quantity
			parcelBasisType		mass;
			massTotal			1.719329192477310e-04;
			parcelsPerSecond	1500000;
			flowRateProfile		constant 1;

			// Velocity
			Umag				constant 30.7309;

			// Size
			sizeDistribution
			{
				type	general;

				generalDistribution
				{
					distribution
					(
						(1e-06      5.822)
						(2e-06      10.8552)
						(3e-06      12.3933)
						(4e-06      8.5806)
						(5e-06      6.6715)
						(6e-06      6.0508)
						(7e-06      6.1651)
						(8e-06      5.8782)
						(9e-06      5.8831)
						(10e-06      6.0816)
						(11e-06      5.8401)
						(12e-06      4.9442)
						(13e-06      2.7722)
						(14e-06      2.7209)
						(15e-06      1.9936)
						(16e-06      1.4931)
						(17e-06      1.1212)
						(18e-06      0.88807)
						(19e-06      0.72678)
						(20e-06      0.60508)
						(21e-06      0.50782)
						(22e-06      0.41397)
						(23e-06      0.33626)
						(24e-06      0.25708)
						(25e-06      0.17009)
						(26e-06      0.18768)
						(27e-06      0.14956)
						(28e-06      0.11437)
						(29e-06      0.089931)
						(30e-06      0.071847)
						(31e-06      0.054252)
						(32e-06      0.041055)
						(33e-06      0.028836)
						(34e-06      0.021505)
						(35e-06      0.013685)
						(36e-06      0.01173)
						(37e-06      0.0068426)
						(38e-06      0.0024438)
						(39e-06      0.0048875)
						(40e-06      0.00391)
						(41e-06      0.0043988)
						(42e-06      0.00391)
						(43e-06      0.001955)
						(44e-06      0.0014663)
						(45e-06      0.0034213)
						(46e-06      0.0014663)
						(47e-06      0.00048875)
						(48e-06      0.00048875)
						(49e-06      0.00097751)
						(50e-06      0.001955)
						(51e-06      0.00048875)
						(52e-06      0.001955)
						(54e-06      0.00048875)
						(55e-06      0.00048875)
						(57e-06      0.00048875)
						(63e-06      0.00048875)
						(69e-06      0.00048875)
					);
				}
			}
		}

		rearLeftInjector5
		{
			type 				coneInjection;

			// Position
			injectionMethod		point;
			position			(0.48325 -0.167 0.001);
			direction			(1 0 1);
			thetaInner			constant 26.5651;
			thetaOuter			constant 30.9638;

			// Duration
			SOI					0.5;
			duration			0.5;

			// Quantity
			parcelBasisType		mass;
			massTotal			7.579395189123401e-05;
			parcelsPerSecond	1500000;
			flowRateProfile		constant 1;

			// Velocity
			Umag				constant 23.7906;

			// Size
			sizeDistribution
			{
				type	general;

				generalDistribution
				{
					distribution
					(
						(1e-06      9.2933)
						(2e-06      14.4139)
						(3e-06      14.6466)
						(4e-06      9.8836)
						(5e-06      7.9138)
						(6e-06      7.3001)
						(7e-06      7.6529)
						(8e-06      6.8739)
						(9e-06      5.9503)
						(10e-06      4.8589)
						(11e-06      3.8009)
						(12e-06      2.5537)
						(13e-06      1.179)
						(14e-06      1.0592)
						(15e-06      0.67114)
						(16e-06      0.48086)
						(17e-06      0.33854)
						(18e-06      0.25648)
						(19e-06      0.1887)
						(20e-06      0.14787)
						(21e-06      0.14469)
						(22e-06      0.087213)
						(23e-06      0.082059)
						(24e-06      0.065806)
						(25e-06      0.033299)
						(26e-06      0.034489)
						(27e-06      0.026957)
						(28e-06      0.019028)
						(29e-06      0.013082)
						(30e-06      0.010703)
						(31e-06      0.0035678)
						(32e-06      0.0039642)
						(33e-06      0.0031714)
						(34e-06      0.0019821)
						(35e-06      0.0019821)
						(36e-06      0.0015857)
						(37e-06      0.0011893)
						(38e-06      0.00039642)
						(41e-06      0.00039642)
						(42e-06      0.00039642)
						(43e-06      0.00039642)
					);
				}
			}
		}

		rearLeftInjector6
		{
			type 				coneInjection;

			// Position
			injectionMethod		point;
			position			(0.48325 -0.167 0.001);
			direction			(1 0 1);
			thetaInner			constant 21.8014;
			thetaOuter			constant 26.5651;

			// Duration
			SOI					0.5;
			duration			0.5;

			// Quantity
			parcelBasisType		mass;
			massTotal			3.353250130832970e-05;
			parcelsPerSecond	1500000;
			flowRateProfile		constant 1;

			// Velocity
			Umag				constant 18.3043;

			// Size
			sizeDistribution
			{
				type	general;

				generalDistribution
				{
					distribution
					(
						(1e-06      13.4099)
						(2e-06      18.0972)
						(3e-06      16.8823)
						(4e-06      11.5373)
						(5e-06      9.5605)
						(6e-06      8.6038)
						(7e-06      7.7793)
						(8e-06      5.5079)
						(9e-06      3.4913)
						(10e-06      2.1241)
						(11e-06      1.2892)
						(12e-06      0.70896)
						(13e-06      0.28999)
						(14e-06      0.24274)
						(15e-06      0.13831)
						(16e-06      0.093865)
						(17e-06      0.064648)
						(18e-06      0.040716)
						(19e-06      0.031081)
						(20e-06      0.023622)
						(21e-06      0.029216)
						(22e-06      0.014919)
						(23e-06      0.010568)
						(24e-06      0.010568)
						(25e-06      0.0034189)
						(26e-06      0.0046621)
						(27e-06      0.0040405)
						(28e-06      0.0018649)
						(29e-06      0.001554)
						(30e-06      0.00093243)
						(31e-06      0.00062162)
						(32e-06      0.00031081)
						(34e-06      0.00031081)
						(36e-06      0.00031081)
					);
				}
			}
		}

		rearLeftInjector7
		{
			type 				coneInjection;

			// Position
			injectionMethod		point;
			position			(0.48325 -0.167 0.001);
			direction			(1 0 1);
			thetaInner			constant 16.6992;
			thetaOuter			constant 21.8014;

			// Duration
			SOI					0.5;
			duration			0.5;

			// Quantity
			parcelBasisType		mass;
			massTotal			1.419494326886100e-05;
			parcelsPerSecond	1500000;
			flowRateProfile		constant 1;

			// Velocity
			Umag				constant 14.7161;

			// Size
			sizeDistribution
			{
				type	general;

				generalDistribution
				{
					distribution
					(
						(1e-06      17.6836)
						(2e-06      22.8602)
						(3e-06      20.2005)
						(4e-06      12.8675)
						(5e-06      9.1176)
						(6e-06      6.9317)
						(7e-06      5.0245)
						(8e-06      2.6506)
						(9e-06      1.2434)
						(10e-06      0.67793)
						(11e-06      0.34729)
						(12e-06      0.19115)
						(13e-06      0.075485)
						(14e-06      0.053385)
						(15e-06      0.033868)
						(16e-06      0.015212)
						(17e-06      0.0083235)
						(18e-06      0.0040182)
						(19e-06      0.0045923)
						(20e-06      0.0031572)
						(21e-06      0.0022961)
						(22e-06      0.00086105)
						(23e-06      0.00057403)
						(24e-06      0.00057403)
						(25e-06      0.00057403)
						(30e-06      0.00028702)
						(68e-06      0.00028702)
						(106e-06      0.00028702)
						(108e-06      0.00028702)
					);
				}
			}
		}

		rearLeftInjector8
		{
			type 				coneInjection;

			// Position
			injectionMethod		point;
			position			(0.48325 -0.167 0.001);
			direction			(1 0 1);
			thetaInner			constant 11.3099;
			thetaOuter			constant 16.6992;

			// Duration
			SOI					0.5;
			duration			0.5;

			// Quantity
			parcelBasisType		mass;
			massTotal			5.641261047993200e-06;
			parcelsPerSecond	1000000;
			flowRateProfile		constant 1;

			// Velocity
			Umag				constant 12.3128;

			// Size
			sizeDistribution
			{
				type	general;

				generalDistribution
				{
					distribution
					(
						(1e-06      20.8687)
						(2e-06      27.4505)
						(3e-06      22.6806)
						(4e-06      12.1866)
						(5e-06      7.2255)
						(6e-06      4.6159)
						(7e-06      2.7487)
						(8e-06      1.2426)
						(9e-06      0.5344)
						(10e-06      0.22531)
						(11e-06      0.12227)
						(12e-06      0.049739)
						(13e-06      0.018652)
						(14e-06      0.014211)
						(15e-06      0.0076977)
						(16e-06      0.0035528)
						(17e-06      0.0026646)
						(18e-06      0.00029606)
						(19e-06      0.00088819)
						(20e-06      0.00059213)
						(22e-06      0.00029606)
						(23e-06      0.00029606)
					);
				}
			}
		}

		rearLeftInjector9
		{
			type 				coneInjection;

			// Position
			injectionMethod		point;
			position			(0.48325 -0.167 0.001);
			direction			(1 0 1);
			thetaInner			constant 5.7106;
			thetaOuter			constant 11.3099;

			// Duration
			SOI					0.5;
			duration			0.5;

			// Quantity
			parcelBasisType		mass;
			massTotal			2.655370472946940e-06;
			parcelsPerSecond	1000000;
			flowRateProfile		constant 1;

			// Velocity
			Umag				constant 10.3787;

			// Size
			sizeDistribution
			{
				type	general;

				generalDistribution
				{
					distribution
					(
						(1e-06      22.2925)
						(2e-06      30.9314)
						(3e-06      24.6445)
						(4e-06      11.2612)
						(5e-06      5.5418)
						(6e-06      2.8977)
						(7e-06      1.4944)
						(8e-06      0.5864)
						(9e-06      0.22026)
						(10e-06      0.074061)
						(11e-06      0.030779)
						(12e-06      0.014107)
						(13e-06      0.005771)
						(14e-06      0.0025649)
						(15e-06      0.00032061)
						(16e-06      0.00032061)
						(17e-06      0.00032061)
						(18e-06      0.00064122)
						(19e-06      0.00032061)
						(21e-06      0.00032061)
						(71e-06      0.00032061)
					);
				}
			}
		}

		rearLeftInjector10
		{
			type 				coneInjection;

			// Position
			injectionMethod		point;
			position			(0.48325 -0.167 0.001);
			direction			(1 0 1);
			thetaInner			constant 0;
			thetaOuter			constant 5.7106;

			// Duration
			SOI					0.5;
			duration			0.5;

			// Quantity
			parcelBasisType		mass;
			massTotal			9.981410148915951e-07;
			parcelsPerSecond	1000000;
			flowRateProfile		constant 1;

			// Velocity
			Umag				constant 8.4220;

			// Size
			sizeDistribution
			{
				type	general;

				generalDistribution
				{
					distribution
					(
						(1e-06      22.2505)
						(2e-06      32.3612)
						(3e-06      25.4878)
						(4e-06      11.0748)
						(5e-06      4.8177)
						(6e-06      2.3285)
						(7e-06      1.0719)
						(8e-06      0.39342)
						(9e-06      0.12947)
						(10e-06      0.045009)
						(11e-06      0.022227)
						(12e-06      0.0097242)
						(13e-06      0.0027784)
						(14e-06      0.0025005)
						(15e-06      0.00027784)
						(16e-06      0.00027784)
						(17e-06      0.00027784)
						(18e-06      0.00055567)
						(66e-06      0.00027784)
						(72e-06      0.00027784)
						(74e-06      0.00027784)
						(106e-06      0.00027784)
					);
				}
			}
		}
	}

	dispersionModel				stochasticDispersionRAS;
	patchInteractionModel		localInteraction;

	localInteractionCoeffs
	{
		patches
		(
			"(inlet|inletSection.*|inletBuffer.*|workingSection.*|outletBuffer.*|outletSection.*|outlet)"
			{
				type	escape;
			}

			"(windsor.*)"
			{
				type	stick;
			}
		);
	}

	stochasticCollisionModel	none;
	surfaceFilmModel			none;
	collisionModel				none;
}

cloudFunctions
{
}

// ************************************************************************* //
