/*--------------------------------*- C++ -*----------------------------------*\
  =========                 |
  \\      /  F ield         | OpenFOAM: The Open Source CFD Toolbox
   \\    /   O peration     | Website:  https://openfoam.org
    \\  /    A nd           | Version:  7
     \\/     M anipulation  |
\*---------------------------------------------------------------------------*/
FoamFile
{
	version		2.0;
	format		ascii;
	class		dictionary;
	location	"constant";
	object		kinematicCloudProperties;
}
// * * * * * * * * * * * * * * * * * * * * * * * * * * * * * * * * * * * * * //

// Revision SC_2021.1
// Changelog: N/A
// Notes: Distribution based on Anton Kabanovs' 'developed' spray
//		  https://hdl.handle.net/2134/37626

solution
{
	active						true;
	transient					true;
	coupled						false;
	cellValueSourceCorrection	false;

	extractionPlane				1.504; // X-position of third-party extraction plane

	surfaceTension				72.8e-3; // Droplet surface tension (N/m)

	lagrangianWrite				125; // Write lagrangian data every <lagrangianWrite> time steps

	sourceTerms
	{
		schemes
		{
			U		semiImplicit 1;
		}
	}

	integrationSchemes
	{
		U		Euler;
	}

	interpolationSchemes
	{
		rho			cell;
		U			cellPoint;
		mu			cell;
		curlUcDt	cell;
	}
}

constantProperties
{
	rho0			1000;
}

subModels
{
	particleForces
	{
		sphereDrag;
		gravity;

		SaffmanMeiLiftForce
		{
			U.air;
		}
	}

	injectionModels
	{
		rearLeftInjector1
		{
			type 				coneInjection;

			// Position
			injectionMethod		point;
			position			(0.48325 -0.167 0.001);
			direction			(1 0 1);
			thetaInner			constant 41.9872;
			thetaOuter			constant 45;

			// Duration
			SOI					3;
			duration			2;

			// Quantity
			parcelBasisType		mass;
			massTotal			0.00115621040924200;
			parcelsPerSecond	3500000;
			flowRateProfile		constant 1;

			// Velocity
			Umag				constant 46.4145;

			// Size
			sizeDistribution
			{
				type	general;

				generalDistribution
				{
					distribution
					(
						(1e-6		0.0881323559173598)
						(2e-6		0.0806899765431276)
						(3e-6		0.120998308310066)
						(4e-6		0.149912501643411)
						(5e-6		0.191056762224471)
						(6e-6		0.252589436295896)
						(7e-6		0.332934278801516)
						(8e-6		0.415134332458866)
						(9e-6		0.515136373625321)
						(10e-6		0.658278220502326)
						(11e-6		0.824135716595853)
						(12e-6		1.00267236775685)
						(13e-6		1.12645057903525)
						(14e-6		1.26738459853440)
						(15e-6		1.51942634287176)
						(16e-6		1.89886524245845)
						(17e-6		2.27448523210848)
						(18e-6		2.54285819117297)
						(19e-6		2.80766803947462)
						(20e-6		3.04757369073424)
						(21e-6		3.23824551793744)
						(22e-6		3.38973761813875)
						(23e-6		3.49650467240195)
						(24e-6		3.58430444414497)
						(25e-6		3.62680016276630)
						(26e-6		3.62089428193559)
						(27e-6		3.62224158842046)
						(28e-6		3.61774927151960)
						(29e-6		3.56956433241298)
						(30e-6		3.46005292153492)
						(31e-6		3.31355069936833)
						(32e-6		3.16907582261485)
						(33e-6		3.04593554804143)
						(34e-6		2.87336874200467)
						(35e-6		2.67995767488122)
						(36e-6		2.51310409843709)
						(37e-6		2.34605026642288)
						(38e-6		2.16885595160191)
						(39e-6		1.98290709986569)
						(40e-6		1.80862557972947)
						(41e-6		1.65402646556895)
						(42e-6		1.52062491155875)
						(43e-6		1.38375260869699)
						(44e-6		1.25572301366115)
						(45e-6		1.14799618071419)
						(46e-6		1.04824873731078)
						(47e-6		0.955082412057631)
						(48e-6		0.849249313577706)
						(49e-6		0.760654585964821)
						(50e-6		0.701451738143928)
						(51e-6		0.636265233760456)
						(52e-6		0.568889918701552)
						(53e-6		0.499677900798038)
						(54e-6		0.456100396984291)
						(55e-6		0.422918186187514)
						(56e-6		0.374021088898340)
						(57e-6		0.332894231117235)
						(58e-6		0.299177420263145)
						(59e-6		0.268188948244896)
						(60e-6		0.247445555766289)
						(61e-6		0.229305152364787)
						(62e-6		0.204677925120581)
						(63e-6		0.173300224853831)
						(64e-6		0.159299927252247)
						(65e-6		0.146599503236575)
						(66e-6		0.128937717971798)
						(67e-6		0.122613427988995)
						(68e-6		0.109273087782436)
						(69e-6		0.0988694420567465)
						(70e-6		0.0843380552246944)
						(71e-6		0.0716925515782642)
						(72e-6		0.0691235278562773)
						(73e-6		0.0645952296555255)
						(74e-6		0.0603934907733899)
						(75e-6		0.0598178843940331)
						(76e-6		0.0517965493898899)
						(77e-6		0.0399729761811222)
						(78e-6		0.0403173980342079)
						(79e-6		0.0340556511210396)
						(80e-6		0.0244189298118289)
						(81e-6		0.0235601090751554)
						(82e-6		0.0271363031360916)
						(83e-6		0.0267974434751796)
						(84e-6		0.0243809609812271)
						(85e-6		0.0339230282873761)
						(86e-6		0.0314373783544271)
						(87e-6		0.0176838354184213)
						(88e-6		0.0132011077646476)
						(89e-6		0.0124013113825088)
						(90e-6		0.0120064308897067)
						(91e-6		0.0129970297549685)
						(92e-6		0.0120344767624707)
						(93e-6		0.00954079164813953)
						(94e-6		0.00708244169078611)
						(95e-6		0.00808339964570596)
						(96e-6		0.00976879088579564)
						(97e-6		0.00967427629539819)
						(98e-6		0.0104723804517463)
						(99e-6		0.0106766039156473)
						(100e-6		0.00899015878160160)
						(101e-6		0.00702334865297981)
						(102e-6		0.00459001146895202)
						(103e-6		0.00646673173225108)
						(104e-6		0.0110908725176991)
						(105e-6		0.0102433547106931)
						(106e-6		0.00667479509993635)
						(107e-6		0.00354223182039421)
						(108e-6		0.00183374923542006)
						(109e-6		0.00209109585365716)
						(110e-6		0.00307058173471746)
						(111e-6		0.00218184438341839)
						(112e-6		0.00148819304006146)
						(113e-6		0.00305634261383194)
						(114e-6		0.00258614802717159)
						(115e-6		0.00100191282309406)
						(116e-6		0.000872717351066873)
						(117e-6		0.00204349191838017)
						(118e-6		0.00417882480859078)
						(119e-6		0.00303960338272285)
						(120e-6		0.00137954835728597)
					);
				}
			}
		}

		rearLeftInjector2
		{
			type 				coneInjection;

			// Position
			injectionMethod		point;
			position			(0.48325 -0.167 0.001);
			direction			(1 0 1);
			thetaInner			constant 38.6598;
			thetaOuter			constant 41.9872;

			// Duration
			SOI					3;
			duration			2;

			// Quantity
			parcelBasisType		mass;
			massTotal			0.00103237999567144;
			parcelsPerSecond	3000000;
			flowRateProfile		constant 1;

			// Velocity
			Umag				constant 43.1899;

			// Size
			sizeDistribution
			{
				type	general;

				generalDistribution
				{
					distribution
					(
						(1e-6		0.0881323559173598)
						(2e-6		0.0806899765431276)
						(3e-6		0.120998308310066)
						(4e-6		0.149912501643411)
						(5e-6		0.191056762224471)
						(6e-6		0.252589436295896)
						(7e-6		0.332934278801516)
						(8e-6		0.415134332458866)
						(9e-6		0.515136373625321)
						(10e-6		0.658278220502326)
						(11e-6		0.824135716595853)
						(12e-6		1.00267236775685)
						(13e-6		1.12645057903525)
						(14e-6		1.26738459853440)
						(15e-6		1.51942634287176)
						(16e-6		1.89886524245845)
						(17e-6		2.27448523210848)
						(18e-6		2.54285819117297)
						(19e-6		2.80766803947462)
						(20e-6		3.04757369073424)
						(21e-6		3.23824551793744)
						(22e-6		3.38973761813875)
						(23e-6		3.49650467240195)
						(24e-6		3.58430444414497)
						(25e-6		3.62680016276630)
						(26e-6		3.62089428193559)
						(27e-6		3.62224158842046)
						(28e-6		3.61774927151960)
						(29e-6		3.56956433241298)
						(30e-6		3.46005292153492)
						(31e-6		3.31355069936833)
						(32e-6		3.16907582261485)
						(33e-6		3.04593554804143)
						(34e-6		2.87336874200467)
						(35e-6		2.67995767488122)
						(36e-6		2.51310409843709)
						(37e-6		2.34605026642288)
						(38e-6		2.16885595160191)
						(39e-6		1.98290709986569)
						(40e-6		1.80862557972947)
						(41e-6		1.65402646556895)
						(42e-6		1.52062491155875)
						(43e-6		1.38375260869699)
						(44e-6		1.25572301366115)
						(45e-6		1.14799618071419)
						(46e-6		1.04824873731078)
						(47e-6		0.955082412057631)
						(48e-6		0.849249313577706)
						(49e-6		0.760654585964821)
						(50e-6		0.701451738143928)
						(51e-6		0.636265233760456)
						(52e-6		0.568889918701552)
						(53e-6		0.499677900798038)
						(54e-6		0.456100396984291)
						(55e-6		0.422918186187514)
						(56e-6		0.374021088898340)
						(57e-6		0.332894231117235)
						(58e-6		0.299177420263145)
						(59e-6		0.268188948244896)
						(60e-6		0.247445555766289)
						(61e-6		0.229305152364787)
						(62e-6		0.204677925120581)
						(63e-6		0.173300224853831)
						(64e-6		0.159299927252247)
						(65e-6		0.146599503236575)
						(66e-6		0.128937717971798)
						(67e-6		0.122613427988995)
						(68e-6		0.109273087782436)
						(69e-6		0.0988694420567465)
						(70e-6		0.0843380552246944)
						(71e-6		0.0716925515782642)
						(72e-6		0.0691235278562773)
						(73e-6		0.0645952296555255)
						(74e-6		0.0603934907733899)
						(75e-6		0.0598178843940331)
						(76e-6		0.0517965493898899)
						(77e-6		0.0399729761811222)
						(78e-6		0.0403173980342079)
						(79e-6		0.0340556511210396)
						(80e-6		0.0244189298118289)
						(81e-6		0.0235601090751554)
						(82e-6		0.0271363031360916)
						(83e-6		0.0267974434751796)
						(84e-6		0.0243809609812271)
						(85e-6		0.0339230282873761)
						(86e-6		0.0314373783544271)
						(87e-6		0.0176838354184213)
						(88e-6		0.0132011077646476)
						(89e-6		0.0124013113825088)
						(90e-6		0.0120064308897067)
						(91e-6		0.0129970297549685)
						(92e-6		0.0120344767624707)
						(93e-6		0.00954079164813953)
						(94e-6		0.00708244169078611)
						(95e-6		0.00808339964570596)
						(96e-6		0.00976879088579564)
						(97e-6		0.00967427629539819)
						(98e-6		0.0104723804517463)
						(99e-6		0.0106766039156473)
						(100e-6		0.00899015878160160)
						(101e-6		0.00702334865297981)
						(102e-6		0.00459001146895202)
						(103e-6		0.00646673173225108)
						(104e-6		0.0110908725176991)
						(105e-6		0.0102433547106931)
						(106e-6		0.00667479509993635)
						(107e-6		0.00354223182039421)
						(108e-6		0.00183374923542006)
						(109e-6		0.00209109585365716)
						(110e-6		0.00307058173471746)
						(111e-6		0.00218184438341839)
						(112e-6		0.00148819304006146)
						(113e-6		0.00305634261383194)
						(114e-6		0.00258614802717159)
						(115e-6		0.00100191282309406)
						(116e-6		0.000872717351066873)
						(117e-6		0.00204349191838017)
						(118e-6		0.00417882480859078)
						(119e-6		0.00303960338272285)
						(120e-6		0.00137954835728597)
					);
				}
			}
		}

		rearLeftInjector3
		{
			type 				coneInjection;

			// Position
			injectionMethod		point;
			position			(0.48325 -0.167 0.001);
			direction			(1 0 1);
			thetaInner			constant 34.992;
			thetaOuter			constant 38.6598;

			// Duration
			SOI					3;
			duration			2;

			// Quantity
			parcelBasisType		mass;
			massTotal			0.000681911418582890;
			parcelsPerSecond	2000000;
			flowRateProfile		constant 1;

			// Velocity
			Umag				constant 37.6914;

			// Size
			sizeDistribution
			{
				type	general;

				generalDistribution
				{
					distribution
					(
						(1e-6		0.0881323559173598)
						(2e-6		0.0806899765431276)
						(3e-6		0.120998308310066)
						(4e-6		0.149912501643411)
						(5e-6		0.191056762224471)
						(6e-6		0.252589436295896)
						(7e-6		0.332934278801516)
						(8e-6		0.415134332458866)
						(9e-6		0.515136373625321)
						(10e-6		0.658278220502326)
						(11e-6		0.824135716595853)
						(12e-6		1.00267236775685)
						(13e-6		1.12645057903525)
						(14e-6		1.26738459853440)
						(15e-6		1.51942634287176)
						(16e-6		1.89886524245845)
						(17e-6		2.27448523210848)
						(18e-6		2.54285819117297)
						(19e-6		2.80766803947462)
						(20e-6		3.04757369073424)
						(21e-6		3.23824551793744)
						(22e-6		3.38973761813875)
						(23e-6		3.49650467240195)
						(24e-6		3.58430444414497)
						(25e-6		3.62680016276630)
						(26e-6		3.62089428193559)
						(27e-6		3.62224158842046)
						(28e-6		3.61774927151960)
						(29e-6		3.56956433241298)
						(30e-6		3.46005292153492)
						(31e-6		3.31355069936833)
						(32e-6		3.16907582261485)
						(33e-6		3.04593554804143)
						(34e-6		2.87336874200467)
						(35e-6		2.67995767488122)
						(36e-6		2.51310409843709)
						(37e-6		2.34605026642288)
						(38e-6		2.16885595160191)
						(39e-6		1.98290709986569)
						(40e-6		1.80862557972947)
						(41e-6		1.65402646556895)
						(42e-6		1.52062491155875)
						(43e-6		1.38375260869699)
						(44e-6		1.25572301366115)
						(45e-6		1.14799618071419)
						(46e-6		1.04824873731078)
						(47e-6		0.955082412057631)
						(48e-6		0.849249313577706)
						(49e-6		0.760654585964821)
						(50e-6		0.701451738143928)
						(51e-6		0.636265233760456)
						(52e-6		0.568889918701552)
						(53e-6		0.499677900798038)
						(54e-6		0.456100396984291)
						(55e-6		0.422918186187514)
						(56e-6		0.374021088898340)
						(57e-6		0.332894231117235)
						(58e-6		0.299177420263145)
						(59e-6		0.268188948244896)
						(60e-6		0.247445555766289)
						(61e-6		0.229305152364787)
						(62e-6		0.204677925120581)
						(63e-6		0.173300224853831)
						(64e-6		0.159299927252247)
						(65e-6		0.146599503236575)
						(66e-6		0.128937717971798)
						(67e-6		0.122613427988995)
						(68e-6		0.109273087782436)
						(69e-6		0.0988694420567465)
						(70e-6		0.0843380552246944)
						(71e-6		0.0716925515782642)
						(72e-6		0.0691235278562773)
						(73e-6		0.0645952296555255)
						(74e-6		0.0603934907733899)
						(75e-6		0.0598178843940331)
						(76e-6		0.0517965493898899)
						(77e-6		0.0399729761811222)
						(78e-6		0.0403173980342079)
						(79e-6		0.0340556511210396)
						(80e-6		0.0244189298118289)
						(81e-6		0.0235601090751554)
						(82e-6		0.0271363031360916)
						(83e-6		0.0267974434751796)
						(84e-6		0.0243809609812271)
						(85e-6		0.0339230282873761)
						(86e-6		0.0314373783544271)
						(87e-6		0.0176838354184213)
						(88e-6		0.0132011077646476)
						(89e-6		0.0124013113825088)
						(90e-6		0.0120064308897067)
						(91e-6		0.0129970297549685)
						(92e-6		0.0120344767624707)
						(93e-6		0.00954079164813953)
						(94e-6		0.00708244169078611)
						(95e-6		0.00808339964570596)
						(96e-6		0.00976879088579564)
						(97e-6		0.00967427629539819)
						(98e-6		0.0104723804517463)
						(99e-6		0.0106766039156473)
						(100e-6		0.00899015878160160)
						(101e-6		0.00702334865297981)
						(102e-6		0.00459001146895202)
						(103e-6		0.00646673173225108)
						(104e-6		0.0110908725176991)
						(105e-6		0.0102433547106931)
						(106e-6		0.00667479509993635)
						(107e-6		0.00354223182039421)
						(108e-6		0.00183374923542006)
						(109e-6		0.00209109585365716)
						(110e-6		0.00307058173471746)
						(111e-6		0.00218184438341839)
						(112e-6		0.00148819304006146)
						(113e-6		0.00305634261383194)
						(114e-6		0.00258614802717159)
						(115e-6		0.00100191282309406)
						(116e-6		0.000872717351066873)
						(117e-6		0.00204349191838017)
						(118e-6		0.00417882480859078)
						(119e-6		0.00303960338272285)
						(120e-6		0.00137954835728597)
					);
				}
			}
		}

		rearLeftInjector4
		{
			type 				coneInjection;

			// Position
			injectionMethod		point;
			position			(0.48325 -0.167 0.001);
			direction			(1 0 1);
			thetaInner			constant 30.9638;
			thetaOuter			constant 34.992;

			// Duration
			SOI					3;
			duration			2;

			// Quantity
			parcelBasisType		mass;
			massTotal			0.000343865838495462;
			parcelsPerSecond	1500000;
			flowRateProfile		constant 1;

			// Velocity
			Umag				constant 30.7309;

			// Size
			sizeDistribution
			{
				type	general;

				generalDistribution
				{
					distribution
					(
						(1e-6		0.0881323559173598)
						(2e-6		0.0806899765431276)
						(3e-6		0.120998308310066)
						(4e-6		0.149912501643411)
						(5e-6		0.191056762224471)
						(6e-6		0.252589436295896)
						(7e-6		0.332934278801516)
						(8e-6		0.415134332458866)
						(9e-6		0.515136373625321)
						(10e-6		0.658278220502326)
						(11e-6		0.824135716595853)
						(12e-6		1.00267236775685)
						(13e-6		1.12645057903525)
						(14e-6		1.26738459853440)
						(15e-6		1.51942634287176)
						(16e-6		1.89886524245845)
						(17e-6		2.27448523210848)
						(18e-6		2.54285819117297)
						(19e-6		2.80766803947462)
						(20e-6		3.04757369073424)
						(21e-6		3.23824551793744)
						(22e-6		3.38973761813875)
						(23e-6		3.49650467240195)
						(24e-6		3.58430444414497)
						(25e-6		3.62680016276630)
						(26e-6		3.62089428193559)
						(27e-6		3.62224158842046)
						(28e-6		3.61774927151960)
						(29e-6		3.56956433241298)
						(30e-6		3.46005292153492)
						(31e-6		3.31355069936833)
						(32e-6		3.16907582261485)
						(33e-6		3.04593554804143)
						(34e-6		2.87336874200467)
						(35e-6		2.67995767488122)
						(36e-6		2.51310409843709)
						(37e-6		2.34605026642288)
						(38e-6		2.16885595160191)
						(39e-6		1.98290709986569)
						(40e-6		1.80862557972947)
						(41e-6		1.65402646556895)
						(42e-6		1.52062491155875)
						(43e-6		1.38375260869699)
						(44e-6		1.25572301366115)
						(45e-6		1.14799618071419)
						(46e-6		1.04824873731078)
						(47e-6		0.955082412057631)
						(48e-6		0.849249313577706)
						(49e-6		0.760654585964821)
						(50e-6		0.701451738143928)
						(51e-6		0.636265233760456)
						(52e-6		0.568889918701552)
						(53e-6		0.499677900798038)
						(54e-6		0.456100396984291)
						(55e-6		0.422918186187514)
						(56e-6		0.374021088898340)
						(57e-6		0.332894231117235)
						(58e-6		0.299177420263145)
						(59e-6		0.268188948244896)
						(60e-6		0.247445555766289)
						(61e-6		0.229305152364787)
						(62e-6		0.204677925120581)
						(63e-6		0.173300224853831)
						(64e-6		0.159299927252247)
						(65e-6		0.146599503236575)
						(66e-6		0.128937717971798)
						(67e-6		0.122613427988995)
						(68e-6		0.109273087782436)
						(69e-6		0.0988694420567465)
						(70e-6		0.0843380552246944)
						(71e-6		0.0716925515782642)
						(72e-6		0.0691235278562773)
						(73e-6		0.0645952296555255)
						(74e-6		0.0603934907733899)
						(75e-6		0.0598178843940331)
						(76e-6		0.0517965493898899)
						(77e-6		0.0399729761811222)
						(78e-6		0.0403173980342079)
						(79e-6		0.0340556511210396)
						(80e-6		0.0244189298118289)
						(81e-6		0.0235601090751554)
						(82e-6		0.0271363031360916)
						(83e-6		0.0267974434751796)
						(84e-6		0.0243809609812271)
						(85e-6		0.0339230282873761)
						(86e-6		0.0314373783544271)
						(87e-6		0.0176838354184213)
						(88e-6		0.0132011077646476)
						(89e-6		0.0124013113825088)
						(90e-6		0.0120064308897067)
						(91e-6		0.0129970297549685)
						(92e-6		0.0120344767624707)
						(93e-6		0.00954079164813953)
						(94e-6		0.00708244169078611)
						(95e-6		0.00808339964570596)
						(96e-6		0.00976879088579564)
						(97e-6		0.00967427629539819)
						(98e-6		0.0104723804517463)
						(99e-6		0.0106766039156473)
						(100e-6		0.00899015878160160)
						(101e-6		0.00702334865297981)
						(102e-6		0.00459001146895202)
						(103e-6		0.00646673173225108)
						(104e-6		0.0110908725176991)
						(105e-6		0.0102433547106931)
						(106e-6		0.00667479509993635)
						(107e-6		0.00354223182039421)
						(108e-6		0.00183374923542006)
						(109e-6		0.00209109585365716)
						(110e-6		0.00307058173471746)
						(111e-6		0.00218184438341839)
						(112e-6		0.00148819304006146)
						(113e-6		0.00305634261383194)
						(114e-6		0.00258614802717159)
						(115e-6		0.00100191282309406)
						(116e-6		0.000872717351066873)
						(117e-6		0.00204349191838017)
						(118e-6		0.00417882480859078)
						(119e-6		0.00303960338272285)
						(120e-6		0.00137954835728597)
					);
				}
			}
		}

		rearLeftInjector5
		{
			type 				coneInjection;

			// Position
			injectionMethod		point;
			position			(0.48325 -0.167 0.001);
			direction			(1 0 1);
			thetaInner			constant 26.5651;
			thetaOuter			constant 30.9638;

			// Duration
			SOI					3;
			duration			2;

			// Quantity
			parcelBasisType		mass;
			massTotal			0.000151587903782468;
			parcelsPerSecond	1500000;
			flowRateProfile		constant 1;

			// Velocity
			Umag				constant 23.7906;

			// Size
			sizeDistribution
			{
				type	general;

				generalDistribution
				{
					distribution
					(
						(1e-6		0.0881323559173598)
						(2e-6		0.0806899765431276)
						(3e-6		0.120998308310066)
						(4e-6		0.149912501643411)
						(5e-6		0.191056762224471)
						(6e-6		0.252589436295896)
						(7e-6		0.332934278801516)
						(8e-6		0.415134332458866)
						(9e-6		0.515136373625321)
						(10e-6		0.658278220502326)
						(11e-6		0.824135716595853)
						(12e-6		1.00267236775685)
						(13e-6		1.12645057903525)
						(14e-6		1.26738459853440)
						(15e-6		1.51942634287176)
						(16e-6		1.89886524245845)
						(17e-6		2.27448523210848)
						(18e-6		2.54285819117297)
						(19e-6		2.80766803947462)
						(20e-6		3.04757369073424)
						(21e-6		3.23824551793744)
						(22e-6		3.38973761813875)
						(23e-6		3.49650467240195)
						(24e-6		3.58430444414497)
						(25e-6		3.62680016276630)
						(26e-6		3.62089428193559)
						(27e-6		3.62224158842046)
						(28e-6		3.61774927151960)
						(29e-6		3.56956433241298)
						(30e-6		3.46005292153492)
						(31e-6		3.31355069936833)
						(32e-6		3.16907582261485)
						(33e-6		3.04593554804143)
						(34e-6		2.87336874200467)
						(35e-6		2.67995767488122)
						(36e-6		2.51310409843709)
						(37e-6		2.34605026642288)
						(38e-6		2.16885595160191)
						(39e-6		1.98290709986569)
						(40e-6		1.80862557972947)
						(41e-6		1.65402646556895)
						(42e-6		1.52062491155875)
						(43e-6		1.38375260869699)
						(44e-6		1.25572301366115)
						(45e-6		1.14799618071419)
						(46e-6		1.04824873731078)
						(47e-6		0.955082412057631)
						(48e-6		0.849249313577706)
						(49e-6		0.760654585964821)
						(50e-6		0.701451738143928)
						(51e-6		0.636265233760456)
						(52e-6		0.568889918701552)
						(53e-6		0.499677900798038)
						(54e-6		0.456100396984291)
						(55e-6		0.422918186187514)
						(56e-6		0.374021088898340)
						(57e-6		0.332894231117235)
						(58e-6		0.299177420263145)
						(59e-6		0.268188948244896)
						(60e-6		0.247445555766289)
						(61e-6		0.229305152364787)
						(62e-6		0.204677925120581)
						(63e-6		0.173300224853831)
						(64e-6		0.159299927252247)
						(65e-6		0.146599503236575)
						(66e-6		0.128937717971798)
						(67e-6		0.122613427988995)
						(68e-6		0.109273087782436)
						(69e-6		0.0988694420567465)
						(70e-6		0.0843380552246944)
						(71e-6		0.0716925515782642)
						(72e-6		0.0691235278562773)
						(73e-6		0.0645952296555255)
						(74e-6		0.0603934907733899)
						(75e-6		0.0598178843940331)
						(76e-6		0.0517965493898899)
						(77e-6		0.0399729761811222)
						(78e-6		0.0403173980342079)
						(79e-6		0.0340556511210396)
						(80e-6		0.0244189298118289)
						(81e-6		0.0235601090751554)
						(82e-6		0.0271363031360916)
						(83e-6		0.0267974434751796)
						(84e-6		0.0243809609812271)
						(85e-6		0.0339230282873761)
						(86e-6		0.0314373783544271)
						(87e-6		0.0176838354184213)
						(88e-6		0.0132011077646476)
						(89e-6		0.0124013113825088)
						(90e-6		0.0120064308897067)
						(91e-6		0.0129970297549685)
						(92e-6		0.0120344767624707)
						(93e-6		0.00954079164813953)
						(94e-6		0.00708244169078611)
						(95e-6		0.00808339964570596)
						(96e-6		0.00976879088579564)
						(97e-6		0.00967427629539819)
						(98e-6		0.0104723804517463)
						(99e-6		0.0106766039156473)
						(100e-6		0.00899015878160160)
						(101e-6		0.00702334865297981)
						(102e-6		0.00459001146895202)
						(103e-6		0.00646673173225108)
						(104e-6		0.0110908725176991)
						(105e-6		0.0102433547106931)
						(106e-6		0.00667479509993635)
						(107e-6		0.00354223182039421)
						(108e-6		0.00183374923542006)
						(109e-6		0.00209109585365716)
						(110e-6		0.00307058173471746)
						(111e-6		0.00218184438341839)
						(112e-6		0.00148819304006146)
						(113e-6		0.00305634261383194)
						(114e-6		0.00258614802717159)
						(115e-6		0.00100191282309406)
						(116e-6		0.000872717351066873)
						(117e-6		0.00204349191838017)
						(118e-6		0.00417882480859078)
						(119e-6		0.00303960338272285)
						(120e-6		0.00137954835728597)
					);
				}
			}
		}

		rearLeftInjector6
		{
			type 				coneInjection;

			// Position
			injectionMethod		point;
			position			(0.48325 -0.167 0.001);
			direction			(1 0 1);
			thetaInner			constant 21.8014;
			thetaOuter			constant 26.5651;

			// Duration
			SOI					3;
			duration			2;

			// Quantity
			parcelBasisType		mass;
			massTotal			6.70650026166594e-5;
			parcelsPerSecond	1500000;
			flowRateProfile		constant 1;

			// Velocity
			Umag				constant 18.3043;

			// Size
			sizeDistribution
			{
				type	general;

				generalDistribution
				{
					distribution
					(
						(1e-6		0.0881323559173598)
						(2e-6		0.0806899765431276)
						(3e-6		0.120998308310066)
						(4e-6		0.149912501643411)
						(5e-6		0.191056762224471)
						(6e-6		0.252589436295896)
						(7e-6		0.332934278801516)
						(8e-6		0.415134332458866)
						(9e-6		0.515136373625321)
						(10e-6		0.658278220502326)
						(11e-6		0.824135716595853)
						(12e-6		1.00267236775685)
						(13e-6		1.12645057903525)
						(14e-6		1.26738459853440)
						(15e-6		1.51942634287176)
						(16e-6		1.89886524245845)
						(17e-6		2.27448523210848)
						(18e-6		2.54285819117297)
						(19e-6		2.80766803947462)
						(20e-6		3.04757369073424)
						(21e-6		3.23824551793744)
						(22e-6		3.38973761813875)
						(23e-6		3.49650467240195)
						(24e-6		3.58430444414497)
						(25e-6		3.62680016276630)
						(26e-6		3.62089428193559)
						(27e-6		3.62224158842046)
						(28e-6		3.61774927151960)
						(29e-6		3.56956433241298)
						(30e-6		3.46005292153492)
						(31e-6		3.31355069936833)
						(32e-6		3.16907582261485)
						(33e-6		3.04593554804143)
						(34e-6		2.87336874200467)
						(35e-6		2.67995767488122)
						(36e-6		2.51310409843709)
						(37e-6		2.34605026642288)
						(38e-6		2.16885595160191)
						(39e-6		1.98290709986569)
						(40e-6		1.80862557972947)
						(41e-6		1.65402646556895)
						(42e-6		1.52062491155875)
						(43e-6		1.38375260869699)
						(44e-6		1.25572301366115)
						(45e-6		1.14799618071419)
						(46e-6		1.04824873731078)
						(47e-6		0.955082412057631)
						(48e-6		0.849249313577706)
						(49e-6		0.760654585964821)
						(50e-6		0.701451738143928)
						(51e-6		0.636265233760456)
						(52e-6		0.568889918701552)
						(53e-6		0.499677900798038)
						(54e-6		0.456100396984291)
						(55e-6		0.422918186187514)
						(56e-6		0.374021088898340)
						(57e-6		0.332894231117235)
						(58e-6		0.299177420263145)
						(59e-6		0.268188948244896)
						(60e-6		0.247445555766289)
						(61e-6		0.229305152364787)
						(62e-6		0.204677925120581)
						(63e-6		0.173300224853831)
						(64e-6		0.159299927252247)
						(65e-6		0.146599503236575)
						(66e-6		0.128937717971798)
						(67e-6		0.122613427988995)
						(68e-6		0.109273087782436)
						(69e-6		0.0988694420567465)
						(70e-6		0.0843380552246944)
						(71e-6		0.0716925515782642)
						(72e-6		0.0691235278562773)
						(73e-6		0.0645952296555255)
						(74e-6		0.0603934907733899)
						(75e-6		0.0598178843940331)
						(76e-6		0.0517965493898899)
						(77e-6		0.0399729761811222)
						(78e-6		0.0403173980342079)
						(79e-6		0.0340556511210396)
						(80e-6		0.0244189298118289)
						(81e-6		0.0235601090751554)
						(82e-6		0.0271363031360916)
						(83e-6		0.0267974434751796)
						(84e-6		0.0243809609812271)
						(85e-6		0.0339230282873761)
						(86e-6		0.0314373783544271)
						(87e-6		0.0176838354184213)
						(88e-6		0.0132011077646476)
						(89e-6		0.0124013113825088)
						(90e-6		0.0120064308897067)
						(91e-6		0.0129970297549685)
						(92e-6		0.0120344767624707)
						(93e-6		0.00954079164813953)
						(94e-6		0.00708244169078611)
						(95e-6		0.00808339964570596)
						(96e-6		0.00976879088579564)
						(97e-6		0.00967427629539819)
						(98e-6		0.0104723804517463)
						(99e-6		0.0106766039156473)
						(100e-6		0.00899015878160160)
						(101e-6		0.00702334865297981)
						(102e-6		0.00459001146895202)
						(103e-6		0.00646673173225108)
						(104e-6		0.0110908725176991)
						(105e-6		0.0102433547106931)
						(106e-6		0.00667479509993635)
						(107e-6		0.00354223182039421)
						(108e-6		0.00183374923542006)
						(109e-6		0.00209109585365716)
						(110e-6		0.00307058173471746)
						(111e-6		0.00218184438341839)
						(112e-6		0.00148819304006146)
						(113e-6		0.00305634261383194)
						(114e-6		0.00258614802717159)
						(115e-6		0.00100191282309406)
						(116e-6		0.000872717351066873)
						(117e-6		0.00204349191838017)
						(118e-6		0.00417882480859078)
						(119e-6		0.00303960338272285)
						(120e-6		0.00137954835728597)
					);
				}
			}
		}

		rearLeftInjector7
		{
			type 				coneInjection;

			// Position
			injectionMethod		point;
			position			(0.48325 -0.167 0.001);
			direction			(1 0 1);
			thetaInner			constant 16.6992;
			thetaOuter			constant 21.8014;

			// Duration
			SOI					3;
			duration			2;

			// Quantity
			parcelBasisType		mass;
			massTotal			2.83898865377220e-5;
			parcelsPerSecond	1500000;
			flowRateProfile		constant 1;

			// Velocity
			Umag				constant 14.7161;

			// Size
			sizeDistribution
			{
				type	general;

				generalDistribution
				{
					distribution
					(
						(1e-6		0.0881323559173598)
						(2e-6		0.0806899765431276)
						(3e-6		0.120998308310066)
						(4e-6		0.149912501643411)
						(5e-6		0.191056762224471)
						(6e-6		0.252589436295896)
						(7e-6		0.332934278801516)
						(8e-6		0.415134332458866)
						(9e-6		0.515136373625321)
						(10e-6		0.658278220502326)
						(11e-6		0.824135716595853)