/*--------------------------------*- C++ -*----------------------------------*\
  =========                 |
  \\      /  F ield         | OpenFOAM: The Open Source CFD Toolbox
   \\    /   O peration     | Website:  https://openfoam.org
    \\  /    A nd           | Version:  7
     \\/     M anipulation  |
\*---------------------------------------------------------------------------*/
FoamFile
{
    version     2.0;
    format      ascii;
    class       dictionary;
    location    "system";
    object      fvSchemes;
}
// * * * * * * * * * * * * * * * * * * * * * * * * * * * * * * * * * * * * * //

// Revision LWT_2023.1
// Changelog: N/A
// Notes: N/A


ddtSchemes
{
    default                             backward;
}

gradSchemes
{
    default                             Gauss linear;

    grad(U)                             cellMDLimited Gauss linear 1;
    grad(nuTilda)                       cellMDLimited Gauss linear 1;
}

divSchemes
{
    default                             none;

    div(phi,U)                          Gauss linearUpwind grad(U);
    div(phi,nuTilda)                    Gauss linearUpwind grad(nuTilda);
    div((nuEff*dev2(T(grad(U)))))       Gauss linear;
}

laplacianSchemes
{
    default                             Gauss linear limited corrected 1;
}

interpolationSchemes
{
    default                             linear;
}

snGradSchemes
{
    default                             limited corrected 1;
}

wallDist
{
    method                              meshWave;
}

// ************************************************************************* //
