/*--------------------------------*- C++ -*----------------------------------*\
  =========                 |
  \\      /  F ield         | OpenFOAM: The Open Source CFD Toolbox
   \\    /   O peration     | Website:  https://openfoam.org
    \\  /    A nd           | Version:  7
     \\/     M anipulation  |
\*---------------------------------------------------------------------------*/
FoamFile
{
    version     2.0;
    format      ascii;
    class       dictionary;
    location    "system";
    object      surfaceFeaturesDict;
}
// * * * * * * * * * * * * * * * * * * * * * * * * * * * * * * * * * * * * * //

// Revision windsorFullScale_2023.1
// Changelog: N/A
// Notes: N/A


surfaces
(
    "Windsor_Axles_FL.stl"
    "Windsor_Axles_FR.stl"
    "Windsor_Axles_RL.stl"
    "Windsor_Axles_RR.stl"
    "Windsor_SB_wW.stl"
    "Windsor_Wheels_FL.stl"
    "Windsor_Wheels_FR.stl"
    "Windsor_Wheels_RL.stl"
    "Windsor_Wheels_RR.stl"
);

includedAngle           180;    // 0: Finds no edges
                                // 180: Finds all edges

geometricTestOnly       no;     // Include region boundaries as features

subsetFeatures
{
    // plane               (normal)(basePoint);    // Only intersecting edges
    // insideBox           (min)(max);             // Only interior edges
    // outsideBox          (min)(max);             // Only exterior edges

    nonManifoldEdges    yes;    // Include non-Manifold edges
    openEdges           yes;    // Include open edges (edges with 1 connected face)
}

trimFeatures
{
    minElem             0;  // Remove if fewer edges than specified
    minLen              0;  // Remove if shorter than specified
}

writeObj                yes;
verboseObj              no;

// ************************************************************************* //
