/*--------------------------------*- C++ -*----------------------------------*\
  =========                 |
  \\      /  F ield         | OpenFOAM: The Open Source CFD Toolbox
   \\    /   O peration     | Website:  https://openfoam.org
    \\  /    A nd           | Version:  7
     \\/     M anipulation  |
\*---------------------------------------------------------------------------*/
FoamFile
{
    version     2.0;
    format      ascii;
    class       volVectorField;
    location    "0";
    object      U;
}
// * * * * * * * * * * * * * * * * * * * * * * * * * * * * * * * * * * * * * //

// Revision windsorFullScale_2023.1
// Changelog: N/A
// Notes: N/A


dimensions      [0 1 -1 0 0 0 0]; // kg m s K mol A cd

internalField   uniform (22.222222222222222 0 0);

boundaryField
{
    inlet
    {
        type        fixedValue;
        value       uniform (22.222222222222222 0 0);
    }

    outlet
    {
        type        zeroGradient;
    }

    "(domainBack|domainFront|domainRoof)"
    {
        type        symmetryPlane;
    }

    domainFloor
    {
        type        fixedValue;
        value       uniform (22.222222222222222 0 0);
    }

    windsorBody
    {
        type        noSlip;
    }

    windsorAxlesFL
    {
        type        rotatingWallVelocity;
        origin      (-1.275 -0.668 0.282);
        axis        (0 1 0);
        omega       -74.074074074074080;
    }

    windsorAxlesFR
    {
        type        rotatingWallVelocity;
        origin      (-1.275 0.668 0.282);
        axis        (0 1 0);
        omega       -74.074074074074080;
    }

    windsorAxlesRL
    {
        type        rotatingWallVelocity;
        origin      (1.275 -0.668 0.282);
        axis        (0 1 0);
        omega       -74.074074074074080;
    }

    windsorAxlesRR
    {
        type        rotatingWallVelocity;
        origin      (1.275 0.668 0.282);
        axis        (0 1 0);
        omega       -74.074074074074080;
    }

    windsorWheelsFL
    {
        type        rotatingWallVelocity;
        origin      (-1.275 -0.668 0.282);
        axis        (0 1 0);
        omega       -74.074074074074080;
    }

    windsorWheelsFR
    {
        type        rotatingWallVelocity;
        origin      (-1.275 0.668 0.282);
        axis        (0 1 0);
        omega       -74.074074074074080;
    }

    windsorWheelsRL
    {
        type        rotatingWallVelocity;
        origin      (1.275 -0.668 0.282);
        axis        (0 1 0);
        omega       -74.074074074074080;
    }

    windsorWheelsRR
    {
        type        rotatingWallVelocity;
        origin      (1.275 0.668 0.282);
        axis        (0 1 0);
        omega       -74.074074074074080;
    }
}

// ************************************************************************* //
