/*--------------------------------*- C++ -*----------------------------------*\
  =========                 |
  \\      /  F ield         | OpenFOAM: The Open Source CFD Toolbox
   \\    /   O peration     | Website:  https://openfoam.org
    \\  /    A nd           | Version:  7
     \\/     M anipulation  |
\*---------------------------------------------------------------------------*/
FoamFile
{
	version		2.0;
	format		ascii;
	class		dictionary;
	location	"constant";
	object		transportProperties;
}
// * * * * * * * * * * * * * * * * * * * * * * * * * * * * * * * * * * * * * //

// Revision 2021.2
// Change(s) from previous revision: Updated to match experimental conditions

transportModel  Newtonian;

nu              [0 2 -1 0 0 0 0] 1.382e-05;	// Kinematic Viscosity
				// kg m s K mol A cd

rhoInf			rhoInf [1 -3 0 0 0 0 0] 1.269;	// Fluid Density
				// kg m s K mol A cd

// ************************************************************************* //
