/*--------------------------------*- C++ -*----------------------------------*\
  =========                 |
  \\      /  F ield         | OpenFOAM: The Open Source CFD Toolbox
   \\    /   O peration     | Website:  https://openfoam.org
    \\  /    A nd           | Version:  7
     \\/     M anipulation  |
\*---------------------------------------------------------------------------*/
FoamFile
{
    version     2.0;
    format      ascii;
    class       dictionary;
    location    "constant";
    object      transportProperties;
}
// * * * * * * * * * * * * * * * * * * * * * * * * * * * * * * * * * * * * * //

// Revision 2022.1
// Changelog: N/A
// Notes: Based on Max Varney's experimental values
//        https://doi.org/10.17028/rd.lboro.13161284.v1


transportModel  Newtonian;

nu              [0 2 -1 0 0 0 0] 1.382e-5; // Kinematic Viscosity
                // kg m s K mol A cd

rhoInf          rhoInf [1 -3 0 0 0 0 0] 1.269; // Fluid Density
                // kg m s K mol A cd

// ************************************************************************* //
